include kalj.lmp
units lj
atom_style atomic

variable dimensions equal 3
variable density equal 1.2
variable fraca equal 0.8

dimension 3

#setup box
variable boxlength equal exp(ln(300)/3)
variable ntypea equal floor(0.8*360)
variable bstart equal 288+1
variable ntypeb equal 360-288

lattice fcc 1.2
Lattice spacing in x,y,z = 1.4938016 1.4938016 1.4938016
region box01 block 0 6.69432950082169 0 6.69432950082169 0 6.69432950082169 units box
create_box 2 box01 # 2 atomtypes
Created orthogonal box = (0 0 0) to (6.6943295 6.6943295 6.6943295)
create_atoms 1 box
Created 365 atoms

set atom 289* type 2
Setting atom values ...
  77 settings made for type
group extra id > 360
5 atoms in group extra
delete_atoms group extra
Deleted 5 atoms, new total = 360
group typea type 1
288 atoms in group typea
group typeb type 2
72 atoms in group typeb

include kalj_particles.lmp
mass * 1.0 #  set mass 1.0 for all types

pair_style lj/cut 2.5
#pair coeffs type1 type2 eps sigma
pair_coeff 1 1 1.0 1.00 2.5
pair_coeff 1 2 1.5 0.80 2.0
pair_coeff 2 2 0.5 0.88 2.2
pair_modify shift yes

print "Minimizing initial structure"
Minimizing initial structure
restart 10000 equil/kalj_T2_n360_v300_10000_1.final.lmprestart
dump 1 all atom 10000 equil/kalj_T2_n360_v300_10000_1.lammpstrj
thermo 1000
timestep 0.001
neighbor 0.5 bin
neigh_modify every 1 delay 0 check yes
fix 1 all nve/limit 0.1
run 10000
Generated 0 of 1 mixed pair_coeff terms from geometric mixing rule
Step          Temp          E_pair         E_mol          TotEng         Press
0   0              31.924966      0              31.924966      202.31477
Averages over the last 6 of 11 rows, steps 5000 to 10000:
Temp E_pair E_mol TotEng Press
17.0836 6.18539 0 31.7396 98.2911
Loop time of 1.16351 on 4 procs for 10000 steps with 360 atoms
